@<TRIPOS>MOLECULE
*****
 26 28 0 0 0
SMALL
GASTEIGER

@<TRIPOS>ATOM
      1 C         -45.3680   -0.9810   -2.2620 C.3   290  IM5290      0.1206
      2 C         -43.9570   -1.6430   -0.3760 C.3   290  IM5290      0.1866
      3 O         -45.0810   -1.3230    0.4370 O.3   290  IM5290     -0.2203
      4 C         -44.5030   -2.1040   -1.7060 C.3   290  IM5290      0.0886
      5 C         -43.3950   -2.3150   -2.7190 C.3   290  IM5290      0.1795
      6 O         -43.7060   -3.4640   -3.5190 O.3   290  IM5290     -0.2209
      7 C         -43.4210   -1.0730   -3.5980 C.3   290  IM5290      0.1482
      8 N         -44.8570   -0.7840   -3.6210 N.4   290  IM5290     -0.2796
      9 N         -41.4340    3.8740   -2.3240 N.ar  290  IM5290     -0.2907
     10 C         -41.3040    2.8280   -3.1720 C.ar  290  IM5290      0.2369
     11 N         -40.0970    2.5410   -3.6860 N.pl3 290  IM5290     -0.0879
     12 N         -42.3320    2.0530   -3.5330 N.ar  290  IM5290     -0.2112
     13 C         -43.5500    2.3460   -3.0350 C.ar  290  IM5290      0.1058
     14 C         -43.7870    3.4470   -2.1040 C.ar  290  IM5290      0.1545
     15 C         -42.5900    4.2350   -1.7560 C.ar  290  IM5290      0.2789
     16 O         -42.6530    5.2160   -0.9820 O.2   290  IM5290     -0.2654
     17 N         -45.0900    3.4460   -1.8220 N.ar  290  IM5290     -0.2377
     18 C         -45.7320    2.4390   -2.4810 C.ar  290  IM5290      0.0982
     19 C         -44.8480    1.6920   -3.2490 C.ar  290  IM5290      0.0395
     20 C         -45.1470    0.5240   -4.1600 C.3   290  IM5290      0.1444
     21 P         -46.5800   -2.7940   -6.3410 P.3   291  PO4291      0.3022
     22 O1        -45.6200   -2.0470   -7.2100 O.3   291  PO4291     -0.1532
     23 O2        -47.9360   -2.1770   -6.5440 O.3   291  PO4291     -0.1532
     24 O3        -46.5920   -4.2910   -6.7160 O.co2 291  PO4291     -0.7577
     25 O4        -46.1910   -2.6550   -4.8950 O.2   291  PO4291     -0.3777
     26 H         -40.6298    4.4010   -2.1123 H       1  LIG1        0.1717
@<TRIPOS>BOND
     1     1     4    1
     2     1     8    1
     3     2     3    1
     4     2     4    1
     5     4     5    1
     6     5     6    1
     7     5     7    1
     8     7     8    1
     9     8    20    1
    10     9    10   ar
    11     9    15   ar
    12    10    11    1
    13    10    12   ar
    14    12    13   ar
    15    13    14   ar
    16    13    19   ar
    17    14    15   ar
    18    14    17   ar
    19    15    16    2
    20    17    18   ar
    21    18    19   ar
    22    19    20    1
    23    21    22    1
    24    21    23    1
    25    21    24    1
    26    21    25    2
    27     9    26    1
    28     8    25    1
